data_image0
_chemical_formula_structural       O6Al4O6Al4O6Al4
_chemical_formula_sum              "O18 Al12"
_cell_length_a       4.77236
_cell_length_b       4.77236
_cell_length_c       13.0127
_cell_angle_alpha    90
_cell_angle_beta     90
_cell_angle_gamma    120

_space_group_name_H-M_alt    "P 1"
_space_group_IT_number       1

loop_
  _space_group_symop_operation_xyz
  'x, y, z'

loop_
  _atom_site_type_symbol
  _atom_site_label
  _atom_site_symmetry_multiplicity
  _atom_site_fract_x
  _atom_site_fract_y
  _atom_site_fract_z
  _atom_site_occupancy
  O   O1        1.0  0.63944  0.66667  0.41667  1.0000
  O   O2        1.0  0.02723  0.36056  0.41667  1.0000
  O   O3        1.0  0.33333  0.97277  0.41667  1.0000
  O   O4        1.0  0.30610  0.30610  0.25000  1.0000
  O   O5        1.0  0.00000  0.69390  0.25000  1.0000
  O   O6        1.0  0.69390  0.00000  0.25000  1.0000
  Al  Al1       1.0  0.33333  0.66667  0.31459  1.0000
  Al  Al2       1.0  0.66667  0.33333  0.48126  1.0000
  Al  Al3       1.0  0.00000  0.00000  0.35208  1.0000
  Al  Al4       1.0  0.66667  0.33333  0.18541  1.0000
  O   O7        1.0  0.30610  0.00000  0.75000  1.0000
  O   O8        1.0  0.69390  0.69390  0.75000  1.0000
  O   O9        1.0  0.00000  0.30610  0.75000  1.0000
  O   O10       1.0  0.97277  0.63944  0.58333  1.0000
  O   O11       1.0  0.66667  0.02723  0.58333  1.0000
  O   O12       1.0  0.36056  0.33333  0.58333  1.0000
  Al  Al5       1.0  0.00000  0.00000  0.64792  1.0000
  Al  Al6       1.0  0.33333  0.66667  0.81459  1.0000
  Al  Al7       1.0  0.66667  0.33333  0.68541  1.0000
  Al  Al8       1.0  0.33333  0.66667  0.51874  1.0000
  O   O13       1.0  0.97277  0.33333  0.08333  1.0000
  O   O14       1.0  0.36056  0.02723  0.08333  1.0000
  O   O15       1.0  0.66667  0.63944  0.08333  1.0000
  O   O16       1.0  0.63944  0.97277  0.91667  1.0000
  O   O17       1.0  0.33333  0.36056  0.91667  1.0000
  O   O18       1.0  0.02723  0.66667  0.91667  1.0000
  Al  Al9       1.0  0.66667  0.33333  0.98126  1.0000
  Al  Al10      1.0  0.00000  0.00000  0.14792  1.0000
  Al  Al11      1.0  0.33333  0.66667  0.01874  1.0000
  Al  Al12      1.0  0.00000  0.00000  0.85208  1.0000
