#
# CIF written by cell_write_cif: Keith Refson, Apr 2010
#
data_al2o3_xc-LDA_c-0700_k-5x5x5_geom
_audit_creation_date '00:32:13 (GMT+1.0) 6th November 2021'
_audit_creation_method 'Generated by CASTEP 19.110'
 
_symmetry_space_group_name_H-M     'P1'
_symmetry_Int_Tables_number           1
 
_cell_length_a            5.096421390254618
_cell_length_b            5.096421099256118
_cell_length_c            5.096421043632636
_cell_angle_alpha        55.355288109536687
_cell_angle_beta         55.355288411391143
_cell_angle_gamma        55.355288188144868
 
loop_
_atom_site_label
_atom_site_type_symbol
_atom_site_fract_x
_atom_site_fract_y
_atom_site_fract_z
_atom_site_U_iso_or_equiv
_atom_site_occupancy
O1    O     0.555801669213531  0.944198360989650  0.249999955924697 0.0100 1.0000                                                                                                                                                                               
O2    O     0.944198423121497  0.250000063387220  0.555801545113284 0.0100 1.0000                                                                                                                                                                               
O3    O     0.250000023334704  0.555801771692740  0.944198187076193 0.0100 1.0000                                                                                                                                                                               
O4    O     0.055801722940438  0.750000105220359  0.444198125872913 0.0100 1.0000                                                                                                                                                                               
O5    O     0.750000114639724  0.444198289769242  0.055801593511182 0.0100 1.0000                                                                                                                                                                               
O6    O     0.444198408538548  0.055801765837821  0.749999880172854 0.0100 1.0000                                                                                                                                                                               
Al1   Al    0.147994622580858  0.147994633461011  0.147994448341069 0.0100 1.0000                                                                                                                                                                               
Al2   Al    0.647994623368707  0.647994629578142  0.647994446878143 0.0100 1.0000                                                                                                                                                                               
Al3   Al    0.852005500279184  0.852005497440845  0.852005300781380 0.0100 1.0000                                                                                                                                                                               
Al4   Al    0.352005498417714  0.352005489057874  0.352005303458474 0.0100 1.0000                                                                                                                                                                               
