#
# CIF written by cell_write_cif: Keith Refson, Apr 2010
#
data_al2o3_xc-PBESOL_c-1000_k-5x5x5_geom
_audit_creation_date '12:58:01 (GMT+1.0) 8th November 2021'
_audit_creation_method 'Generated by CASTEP 19.110'
 
_symmetry_space_group_name_H-M     'P1'
_symmetry_Int_Tables_number           1
 
_cell_length_a            5.137153638146269
_cell_length_b            5.137155033634021
_cell_length_c            5.137154535367879
_cell_angle_alpha        55.350275252143817
_cell_angle_beta         55.350393074599282
_cell_angle_gamma        55.350332292138475
 
loop_
_atom_site_label
_atom_site_type_symbol
_atom_site_fract_x
_atom_site_fract_y
_atom_site_fract_z
_atom_site_U_iso_or_equiv
_atom_site_occupancy
O1    O     0.555964080380664  0.944024931315619  0.250003314645060 0.0100 1.0000                                                                                                                                                                               
O2    O     0.944034145418298  0.249987302500254  0.555967413011923 0.0100 1.0000                                                                                                                                                                               
O3    O     0.249995413050482  0.555980110979547  0.944013023920051 0.0100 1.0000                                                                                                                                                                               
O4    O     0.055996492281001  0.750004394638371  0.444012287296954 0.0100 1.0000                                                                                                                                                                               
O5    O     0.750007552515744  0.443998196703483  0.056002560696393 0.0100 1.0000                                                                                                                                                                               
O6    O     0.444001553840891  0.056005725412057  0.749999485593207 0.0100 1.0000                                                                                                                                                                               
Al1   Al    0.147895652279340  0.147895720539165  0.147896264488383 0.0100 1.0000                                                                                                                                                                               
Al2   Al    0.647895061517863  0.647895204896809  0.647894652965325 0.0100 1.0000                                                                                                                                                                               
Al3   Al    0.852105708543266  0.852104803425820  0.852104477508080 0.0100 1.0000                                                                                                                                                                               
Al4   Al    0.352104946607360  0.352104216023780  0.352105307004815 0.0100 1.0000                                                                                                                                                                               
