#
# CIF written by cell_write_cif: Keith Refson, Apr 2010
#
data_al2o3_xc-LDA_c-0600_k-3x3x3_geom
_audit_creation_date '12:49:15 (GMT+1.0) 10th November 2021'
_audit_creation_method 'Generated by CASTEP 19.110'
 
_symmetry_space_group_name_H-M     'P1'
_symmetry_Int_Tables_number           1
 
_cell_length_a            5.120943812358651
_cell_length_b            5.120924708099380
_cell_length_c            5.120963212280759
_cell_angle_alpha        55.328113859089612
_cell_angle_beta         55.328009711167439
_cell_angle_gamma        55.328207660278842
 
loop_
_atom_site_label
_atom_site_type_symbol
_atom_site_fract_x
_atom_site_fract_y
_atom_site_fract_z
_atom_site_U_iso_or_equiv
_atom_site_occupancy
O1    O     0.556023259805743  0.943976875152786  0.249999945843746 0.0100 1.0000                                                                                                                                                                               
O2    O     0.943977217212702  0.250000100285535  0.556022816078598 0.0100 1.0000                                                                                                                                                                               
O3    O     0.250000329417160  0.556023171291365  0.943976690983767 0.0100 1.0000                                                                                                                                                                               
O4    O     0.056022840125591  0.750000060373183  0.443976997097742 0.0100 1.0000                                                                                                                                                                               
O5    O     0.749999930619376  0.443976967489598  0.056023014353754 0.0100 1.0000                                                                                                                                                                               
O6    O     0.443976798537663  0.056023254821834  0.749999906240851 0.0100 1.0000                                                                                                                                                                               
Al1   Al    0.147988902663723  0.147989042722154  0.147988496691231 0.0100 1.0000                                                                                                                                                                               
Al2   Al    0.647988867960448  0.647989098238424  0.647988526102420 0.0100 1.0000                                                                                                                                                                               
Al3   Al    0.852011211747396  0.852011042615373  0.852011199056670 0.0100 1.0000                                                                                                                                                                               
Al4   Al    0.352011248345104  0.352010993444654  0.352011194681409 0.0100 1.0000                                                                                                                                                                               
