#
# CIF written by cell_write_cif: Keith Refson, Apr 2010
#
data_al2o3_xc-LDA_c-0200_k-5x5x5_geom
_audit_creation_date '00:04:24 (GMT+1.0) 6th November 2021'
_audit_creation_method 'Generated by CASTEP 19.110'
 
_symmetry_space_group_name_H-M     'P1'
_symmetry_Int_Tables_number           1
 
_cell_length_a            5.933126050733911
_cell_length_b            5.933126168191790
_cell_length_c            5.933126186045170
_cell_angle_alpha        56.619057577984705
_cell_angle_beta         56.619058456618312
_cell_angle_gamma        56.619058896420135
 
loop_
_atom_site_label
_atom_site_type_symbol
_atom_site_fract_x
_atom_site_fract_y
_atom_site_fract_z
_atom_site_U_iso_or_equiv
_atom_site_occupancy
O1    O     0.552409911533702  0.947593116732617  0.249998191372712 0.0100 1.0000                                                                                                                                                                               
O2    O     0.947593067431868  0.249998382193486  0.552409744005773 0.0100 1.0000                                                                                                                                                                               
O3    O     0.249998356910450  0.552409943942950  0.947592906774257 0.0100 1.0000                                                                                                                                                                               
O4    O     0.052407074056108  0.750001738249668  0.447590000319933 0.0100 1.0000                                                                                                                                                                               
O5    O     0.750001767076674  0.447590158557182  0.052406862476852 0.0100 1.0000                                                                                                                                                                               
O6    O     0.447590194566801  0.052407018761837  0.750001565608378 0.0100 1.0000                                                                                                                                                                               
Al1   Al    0.151341422471819  0.151341423143983  0.151341259425984 0.0100 1.0000                                                                                                                                                                               
Al2   Al    0.651337776373912  0.651337804782225  0.651337612915440 0.0100 1.0000                                                                                                                                                                               
Al3   Al    0.848658696759943  0.848658702830094  0.848658500572694 0.0100 1.0000                                                                                                                                                                               
Al4   Al    0.348662339253629  0.348662317240863  0.348662143658167 0.0100 1.0000                                                                                                                                                                               
