#
# CIF written by cell_write_cif: Keith Refson, Apr 2010
#
data_al2o3_xc-LDA_c-0600_k-7x7x7_geom
_audit_creation_date '13:15:37 (GMT+1.0) 10th November 2021'
_audit_creation_method 'Generated by CASTEP 19.110'
 
_symmetry_space_group_name_H-M     'P1'
_symmetry_Int_Tables_number           1
 
_cell_length_a            5.119716998033053
_cell_length_b            5.119716811984746
_cell_length_c            5.119716886373152
_cell_angle_alpha        55.302175796312696
_cell_angle_beta         55.302184808166977
_cell_angle_gamma        55.302180129167411
 
loop_
_atom_site_label
_atom_site_type_symbol
_atom_site_fract_x
_atom_site_fract_y
_atom_site_fract_z
_atom_site_U_iso_or_equiv
_atom_site_occupancy
O1    O     0.556001181380730  0.943998890235082  0.249999848572188 0.0100 1.0000                                                                                                                                                                               
O2    O     0.943999060287064  0.249999984500693  0.556001036443161 0.0100 1.0000                                                                                                                                                                               
O3    O     0.250000020208414  0.556001181132641  0.943998766792612 0.0100 1.0000                                                                                                                                                                               
O4    O     0.056001083817038  0.750000172881824  0.443998662320673 0.0100 1.0000                                                                                                                                                                               
O5    O     0.750000057634973  0.443998899093307  0.056001068336303 0.0100 1.0000                                                                                                                                                                               
O6    O     0.443998911449970  0.056001219687143  0.749999949762974 0.0100 1.0000                                                                                                                                                                               
Al1   Al    0.148038903488808  0.148038940783153  0.148038713487359 0.0100 1.0000                                                                                                                                                                               
Al2   Al    0.648038937245429  0.648038913059601  0.648038718459787 0.0100 1.0000                                                                                                                                                                               
Al3   Al    0.851961239301722  0.851961192454388  0.851961025904283 0.0100 1.0000                                                                                                                                                                               
Al4   Al    0.351961211620759  0.351961212607072  0.351960997050849 0.0100 1.0000                                                                                                                                                                               
