#
# CIF written by cell_write_cif: Keith Refson, Apr 2010
#
data_al2o3_xc-LDA_c-0600_k-6x6x6_geom
_audit_creation_date '13:03:16 (GMT+1.0) 10th November 2021'
_audit_creation_method 'Generated by CASTEP 19.110'
 
_symmetry_space_group_name_H-M     'P1'
_symmetry_Int_Tables_number           1
 
_cell_length_a            5.118929898469495
_cell_length_b            5.118930010866724
_cell_length_c            5.118930109550785
_cell_angle_alpha        55.305673961900133
_cell_angle_beta         55.305674824039897
_cell_angle_gamma        55.305673298973666
 
loop_
_atom_site_label
_atom_site_type_symbol
_atom_site_fract_x
_atom_site_fract_y
_atom_site_fract_z
_atom_site_U_iso_or_equiv
_atom_site_occupancy
O1    O     0.556138461966191  0.943861739076636  0.249999886288821 0.0100 1.0000                                                                                                                                                                               
O2    O     0.943861716870179  0.250000080863465  0.556138076797271 0.0100 1.0000                                                                                                                                                                               
O3    O     0.250000084133364  0.556138304033374  0.943861640725531 0.0100 1.0000                                                                                                                                                                               
O4    O     0.056138395314362  0.750000036119848  0.443861659168050 0.0100 1.0000                                                                                                                                                                               
O5    O     0.750000040979079  0.443861808673814  0.056138139172279 0.0100 1.0000                                                                                                                                                                               
O6    O     0.443861666749848  0.056138405153784  0.749999870003294 0.0100 1.0000                                                                                                                                                                               
Al1   Al    0.147980592580178  0.147980637488421  0.147980473999615 0.0100 1.0000                                                                                                                                                                               
Al2   Al    0.647980622721667  0.647980625597250  0.647980445902121 0.0100 1.0000                                                                                                                                                                               
Al3   Al    0.852019530581638  0.852019478346359  0.852019292272162 0.0100 1.0000                                                                                                                                                                               
Al4   Al    0.352019494538399  0.352019491081953  0.352019302801045 0.0100 1.0000                                                                                                                                                                               
