#
# CIF written by cell_write_cif: Keith Refson, Apr 2010
#
data_al2o3_xc-LDA_c-0600_k-5x5x5_geom
_audit_creation_date '12:57:03 (GMT+1.0) 10th November 2021'
_audit_creation_method 'Generated by CASTEP 19.110'
 
_symmetry_space_group_name_H-M     'P1'
_symmetry_Int_Tables_number           1
 
_cell_length_a            5.119507482453113
_cell_length_b            5.119507367138789
_cell_length_c            5.119507328259137
_cell_angle_alpha        55.315947137355074
_cell_angle_beta         55.315950142269791
_cell_angle_gamma        55.315947536288959
 
loop_
_atom_site_label
_atom_site_type_symbol
_atom_site_fract_x
_atom_site_fract_y
_atom_site_fract_z
_atom_site_U_iso_or_equiv
_atom_site_occupancy
O1    O     0.556081172350766  0.943918989077560  0.249999869690437 0.0100 1.0000                                                                                                                                                                               
O2    O     0.943919058368852  0.250000052097666  0.556080889927124 0.0100 1.0000                                                                                                                                                                               
O3    O     0.250000069772991  0.556081108783091  0.943918752330416 0.0100 1.0000                                                                                                                                                                               
O4    O     0.056081088337821  0.750000053091032  0.443918873214176 0.0100 1.0000                                                                                                                                                                               
O5    O     0.750000050998756  0.443918980500623  0.056081008899558 0.0100 1.0000                                                                                                                                                                               
O6    O     0.443918936629107  0.056081174087715  0.749999886843311 0.0100 1.0000                                                                                                                                                                               
Al1   Al    0.147998655946636  0.147998683294971  0.147998507056900 0.0100 1.0000                                                                                                                                                                               
Al2   Al    0.647998688528534  0.647998681157008  0.647998491474217 0.0100 1.0000                                                                                                                                                                               
Al3   Al    0.852001458433871  0.852001439138858  0.852001240852045 0.0100 1.0000                                                                                                                                                                               
Al4   Al    0.352001427067571  0.352001445206380  0.352001266842005 0.0100 1.0000                                                                                                                                                                               
