#
# CIF written by cell_write_cif: Keith Refson, Apr 2010
#
data_al2o3_xc-LDA_c-0600_k-4x4x4_geom
_audit_creation_date '12:52:09 (GMT+1.0) 10th November 2021'
_audit_creation_method 'Generated by CASTEP 19.110'
 
_symmetry_space_group_name_H-M     'P1'
_symmetry_Int_Tables_number           1
 
_cell_length_a            5.120534821340664
_cell_length_b            5.120535312390887
_cell_length_c            5.120535114982029
_cell_angle_alpha        55.293342255642145
_cell_angle_beta         55.293355411880079
_cell_angle_gamma        55.293341147940346
 
loop_
_atom_site_label
_atom_site_type_symbol
_atom_site_fract_x
_atom_site_fract_y
_atom_site_fract_z
_atom_site_U_iso_or_equiv
_atom_site_occupancy
O1    O     0.556139586598879  0.943860367162913  0.249999952745749 0.0100 1.0000                                                                                                                                                                               
O2    O     0.943860795451820  0.249999986794119  0.556139438338702 0.0100 1.0000                                                                                                                                                                               
O3    O     0.249999789761292  0.556139557728461  0.943860414453110 0.0100 1.0000                                                                                                                                                                               
O4    O     0.056139523392552  0.750000155080319  0.443860165269069 0.0100 1.0000                                                                                                                                                                               
O5    O     0.750000165387519  0.443860712443003  0.056139265406198 0.0100 1.0000                                                                                                                                                                               
O6    O     0.443860720870435  0.056139515417919  0.749999926382783 0.0100 1.0000                                                                                                                                                                               
Al1   Al    0.148003322435821  0.148003340595117  0.148003160285593 0.0100 1.0000                                                                                                                                                                               
Al2   Al    0.648003320149295  0.648003314261754  0.648003183480882 0.0100 1.0000                                                                                                                                                                               
Al3   Al    0.851996686446894  0.851996803338039  0.851996650779671 0.0100 1.0000                                                                                                                                                                               
Al4   Al    0.351996695940398  0.351996853613261  0.351996629988432 0.0100 1.0000                                                                                                                                                                               
