#
# CIF written by cell_write_cif: Keith Refson, Apr 2010
#
data_al2o3_xc-PBESOL_c-0600_k-6x6x6_geom
_audit_creation_date '13:56:42 (GMT+1.0) 10th November 2021'
_audit_creation_method 'Generated by CASTEP 19.110'
 
_symmetry_space_group_name_H-M     'P1'
_symmetry_Int_Tables_number           1
 
_cell_length_a            5.166986244274985
_cell_length_b            5.166986302801263
_cell_length_c            5.166986068366482
_cell_angle_alpha        55.285131145133256
_cell_angle_beta         55.285126881237524
_cell_angle_gamma        55.285128034758159
 
loop_
_atom_site_label
_atom_site_type_symbol
_atom_site_fract_x
_atom_site_fract_y
_atom_site_fract_z
_atom_site_U_iso_or_equiv
_atom_site_occupancy
O1    O     0.556382311229511  0.943617790440593  0.249999877911807 0.0100 1.0000                                                                                                                                                                               
O2    O     0.943617832998995  0.250000005985630  0.556382181809036 0.0100 1.0000                                                                                                                                                                               
O3    O     0.250000143986690  0.556382259261187  0.943617587277523 0.0100 1.0000                                                                                                                                                                               
O4    O     0.056382362310573  0.750000116711227  0.443617501942879 0.0100 1.0000                                                                                                                                                                               
O5    O     0.749999989782794  0.443617781004455  0.056382259366597 0.0100 1.0000                                                                                                                                                                               
O6    O     0.443617698292508  0.056382428630319  0.749999869648342 0.0100 1.0000                                                                                                                                                                               
Al1   Al    0.147908684645912  0.147908676056615  0.147908466834956 0.0100 1.0000                                                                                                                                                                               
Al2   Al    0.647908630913387  0.647908660155196  0.647908500413179 0.0100 1.0000                                                                                                                                                                               
Al3   Al    0.852091482520331  0.852091447418940  0.852091285452520 0.0100 1.0000                                                                                                                                                                               
Al4   Al    0.352091469754205  0.352091440770742  0.352091256473350 0.0100 1.0000                                                                                                                                                                               
