#
# CIF written by cell_write_cif: Keith Refson, Apr 2010
#
data_al2o3_xc-LDA_c-0600_k-8x8x8_geom
_audit_creation_date '13:25:35 (GMT+1.0) 10th November 2021'
_audit_creation_method 'Generated by CASTEP 19.110'
 
_symmetry_space_group_name_H-M     'P1'
_symmetry_Int_Tables_number           1
 
_cell_length_a            5.118406223490425
_cell_length_b            5.118405958661395
_cell_length_c            5.118405751476928
_cell_angle_alpha        55.315637559576174
_cell_angle_beta         55.315633506695065
_cell_angle_gamma        55.315635026377471
 
loop_
_atom_site_label
_atom_site_type_symbol
_atom_site_fract_x
_atom_site_fract_y
_atom_site_fract_z
_atom_site_U_iso_or_equiv
_atom_site_occupancy
O1    O     0.556106451058688  0.943893707823530  0.249999848056809 0.0100 1.0000                                                                                                                                                                               
O2    O     0.943893767606950  0.250000072812866  0.556106161850972 0.0100 1.0000                                                                                                                                                                               
O3    O     0.250000064976441  0.556106378389108  0.943893551149903 0.0100 1.0000                                                                                                                                                                               
O4    O     0.056106348754302  0.750000045587336  0.443893635474970 0.0100 1.0000                                                                                                                                                                               
O5    O     0.750000068891312  0.443893734578765  0.056106198857512 0.0100 1.0000                                                                                                                                                                               
O6    O     0.443893672855867  0.056106393275537  0.749999891267039 0.0100 1.0000                                                                                                                                                                               
Al1   Al    0.147991324715067  0.147991390377620  0.147991193995448 0.0100 1.0000                                                                                                                                                                               
Al2   Al    0.647991373260794  0.647991364096191  0.647991195389689 0.0100 1.0000                                                                                                                                                                               
Al3   Al    0.852008779229704  0.852008752421066  0.852008546686755 0.0100 1.0000                                                                                                                                                                               
Al4   Al    0.352008755085779  0.352008767072885  0.352008564401092 0.0100 1.0000                                                                                                                                                                               
