#
# CIF written by cell_write_cif: Keith Refson, Apr 2010
#
data_al2o3_xc-LDA_c-1000_k-5x5x5_geom
_audit_creation_date '11:13:37 (GMT+1.0) 8th November 2021'
_audit_creation_method 'Generated by CASTEP 19.110'
 
_symmetry_space_group_name_H-M     'P1'
_symmetry_Int_Tables_number           1
 
_cell_length_a            5.092133493858478
_cell_length_b            5.092133130721349
_cell_length_c            5.092133511958640
_cell_angle_alpha        55.362860412186329
_cell_angle_beta         55.362860220769178
_cell_angle_gamma        55.362853694289043
 
loop_
_atom_site_label
_atom_site_type_symbol
_atom_site_fract_x
_atom_site_fract_y
_atom_site_fract_z
_atom_site_U_iso_or_equiv
_atom_site_occupancy
O1    O     0.555821858321550  0.944178299800948  0.249999851043199 0.0100 1.0000                                                                                                                                                                               
O2    O     0.944178453724292  0.250000037848199  0.555821577036003 0.0100 1.0000                                                                                                                                                                               
O3    O     0.250000148151993  0.555821692633270  0.944178060204051 0.0100 1.0000                                                                                                                                                                               
O4    O     0.055821708560329  0.750000063810416  0.444178169494533 0.0100 1.0000                                                                                                                                                                               
O5    O     0.749999939957249  0.444178363038008  0.055821797585291 0.0100 1.0000                                                                                                                                                                               
O6    O     0.444178225711665  0.055821909470446  0.749999873317254 0.0100 1.0000                                                                                                                                                                               
Al1   Al    0.147995798168177  0.147995800651001  0.147995643604297 0.0100 1.0000                                                                                                                                                                               
Al2   Al    0.647995838028313  0.647995803063693  0.647995626029271 0.0100 1.0000                                                                                                                                                                               
Al3   Al    0.852004339084708  0.852004323963908  0.852004077865146 0.0100 1.0000                                                                                                                                                                               
Al4   Al    0.352004296726629  0.352004312155016  0.352004110951144 0.0100 1.0000                                                                                                                                                                               
