#
# CIF written by cell_write_cif: Keith Refson, Apr 2010
#
data_al2o3_xc-PBESOL_c-0600_k-4x4x4_geom
_audit_creation_date '13:38:23 (GMT+1.0) 10th November 2021'
_audit_creation_method 'Generated by CASTEP 19.110'
 
_symmetry_space_group_name_H-M     'P1'
_symmetry_Int_Tables_number           1
 
_cell_length_a            5.166999440547787
_cell_length_b            5.166999415303766
_cell_length_c            5.167000082653840
_cell_angle_alpha        55.297339647199074
_cell_angle_beta         55.297333901809097
_cell_angle_gamma        55.297343160713986
 
loop_
_atom_site_label
_atom_site_type_symbol
_atom_site_fract_x
_atom_site_fract_y
_atom_site_fract_z
_atom_site_U_iso_or_equiv
_atom_site_occupancy
O1    O     0.556439724172462  0.943560155691414  0.249999939491995 0.0100 1.0000                                                                                                                                                                               
O2    O     0.943560603922672  0.250000021037453  0.556439454158057 0.0100 1.0000                                                                                                                                                                               
O3    O     0.250000223871056  0.556439513056014  0.943560218746510 0.0100 1.0000                                                                                                                                                                               
O4    O     0.056439269181691  0.750000155529288  0.443560481278878 0.0100 1.0000                                                                                                                                                                               
O5    O     0.749999889773377  0.443560810099318  0.056439378857325 0.0100 1.0000                                                                                                                                                                               
O6    O     0.443560598188570  0.056439715303773  0.749999834230031 0.0100 1.0000                                                                                                                                                                               
Al1   Al    0.147898384758528  0.147898346745882  0.147898124443769 0.0100 1.0000                                                                                                                                                                               
Al2   Al    0.647898401412107  0.647898390825396  0.647898206714373 0.0100 1.0000                                                                                                                                                                               
Al3   Al    0.852101724132182  0.852101730147619  0.852101583763486 0.0100 1.0000                                                                                                                                                                               
Al4   Al    0.352101787022261  0.352101767998746  0.352101565445763 0.0100 1.0000                                                                                                                                                                               
