#
# CIF written by cell_write_cif: Keith Refson, Apr 2010
#
data_al2o3_xc-PBESOL_c-0600_k-1x1x1_geom
_audit_creation_date '13:26:18 (GMT+1.0) 10th November 2021'
_audit_creation_method 'Generated by CASTEP 19.110'
 
_symmetry_space_group_name_H-M     'P1'
_symmetry_Int_Tables_number           1
 
_cell_length_a            5.161160969425540
_cell_length_b            5.161095439633129
_cell_length_c            5.162219682993618
_cell_angle_alpha        55.097036887477557
_cell_angle_beta         55.096694696532694
_cell_angle_gamma        55.107857345737067
 
loop_
_atom_site_label
_atom_site_type_symbol
_atom_site_fract_x
_atom_site_fract_y
_atom_site_fract_z
_atom_site_U_iso_or_equiv
_atom_site_occupancy
O1    O     0.561705812768946  0.938297752052138  0.249996818995664 0.0100 1.0000                                                                                                                                                                               
O2    O     0.938296579198012  0.249986771426620  0.561707132609607 0.0100 1.0000                                                                                                                                                                               
O3    O     0.250015823132453  0.561697627735589  0.938297268605452 0.0100 1.0000                                                                                                                                                                               
O4    O     0.061703443720881  0.750013414171661  0.438292495962754 0.0100 1.0000                                                                                                                                                                               
O5    O     0.749984353065121  0.438302374814024  0.061702422541734 0.0100 1.0000                                                                                                                                                                               
O6    O     0.438294359526766  0.061702380367870  0.750003044178170 0.0100 1.0000                                                                                                                                                                               
Al1   Al    0.147758976028731  0.147763164458606  0.147761138504969 0.0100 1.0000                                                                                                                                                                               
Al2   Al    0.647762857887249  0.647760252468827  0.647760615477754 0.0100 1.0000                                                                                                                                                                               
Al3   Al    0.852241117057694  0.852237018369236  0.852238668773515 0.0100 1.0000                                                                                                                                                                               
Al4   Al    0.352237284049050  0.352239850570333  0.352239181480570 0.0100 1.0000                                                                                                                                                                               
