#
# CIF written by cell_write_cif: Keith Refson, Apr 2010
#
data_al2o3_xc-PBESOL_c-0800_k-5x5x5_geom
_audit_creation_date '01:44:14 (GMT+1.0) 6th November 2021'
_audit_creation_method 'Generated by CASTEP 19.110'
 
_symmetry_space_group_name_H-M     'P1'
_symmetry_Int_Tables_number           1
 
_cell_length_a            5.138735432904922
_cell_length_b            5.138736752721290
_cell_length_c            5.138734710735945
_cell_angle_alpha        55.344455011451672
_cell_angle_beta         55.344477993231216
_cell_angle_gamma        55.344461794519198
 
loop_
_atom_site_label
_atom_site_type_symbol
_atom_site_fract_x
_atom_site_fract_y
_atom_site_fract_z
_atom_site_U_iso_or_equiv
_atom_site_occupancy
O1    O     0.555861073505252  0.944138916739015  0.249999857720516 0.0100 1.0000                                                                                                                                                                               
O2    O     0.944138902889941  0.249999837544542  0.555860899190362 0.0100 1.0000                                                                                                                                                                               
O3    O     0.250000014571255  0.555861467853615  0.944138822263235 0.0100 1.0000                                                                                                                                                                               
O4    O     0.055860531983471  0.750000611778471  0.444138579537302 0.0100 1.0000                                                                                                                                                                               
O5    O     0.749999838631181  0.444138677051115  0.055861473651319 0.0100 1.0000                                                                                                                                                                               
O6    O     0.444139050372156  0.055861291849455  0.750000032158595 0.0100 1.0000                                                                                                                                                                               
Al1   Al    0.147942082598622  0.147941785623350  0.147941469730585 0.0100 1.0000                                                                                                                                                                               
Al2   Al    0.647942211201877  0.647941695669535  0.647941569035167 0.0100 1.0000                                                                                                                                                                               
Al3   Al    0.852058443863732  0.852058094547574  0.852058194320718 0.0100 1.0000                                                                                                                                                                               
Al4   Al    0.352058456817416  0.352058227778231  0.352057889522389 0.0100 1.0000                                                                                                                                                                               
