#
# CIF written by cell_write_cif: Keith Refson, Apr 2010
#
data_al2o3_xc-LDA_c-1200_k-5x5x5_geom
_audit_creation_date '11:31:03 (GMT+1.0) 8th November 2021'
_audit_creation_method 'Generated by CASTEP 19.110'
 
_symmetry_space_group_name_H-M     'P1'
_symmetry_Int_Tables_number           1
 
_cell_length_a            5.091468893710840
_cell_length_b            5.091468683287247
_cell_length_c            5.091468748381660
_cell_angle_alpha        55.371803024571378
_cell_angle_beta         55.371797139342469
_cell_angle_gamma        55.371800389055146
 
loop_
_atom_site_label
_atom_site_type_symbol
_atom_site_fract_x
_atom_site_fract_y
_atom_site_fract_z
_atom_site_U_iso_or_equiv
_atom_site_occupancy
O1    O     0.555859126141314  0.944140985467224  0.250000031596850 0.0100 1.0000                                                                                                                                                                               
O2    O     0.944140722735949  0.250000028160445  0.555858901413450 0.0100 1.0000                                                                                                                                                                               
O3    O     0.250000315389480  0.555859009501984  0.944140682870237 0.0100 1.0000                                                                                                                                                                               
O4    O     0.055859214885897  0.750000053125070  0.444140937646847 0.0100 1.0000                                                                                                                                                                               
O5    O     0.749999983614304  0.444141105639930  0.055858956465337 0.0100 1.0000                                                                                                                                                                               
O6    O     0.444140979090754  0.055859133093476  0.749999790069009 0.0100 1.0000                                                                                                                                                                               
Al1   Al    0.147991516058972  0.147991604274089  0.147991368843056 0.0100 1.0000                                                                                                                                                                               
Al2   Al    0.647991587409624  0.647991545337196  0.647991363561376 0.0100 1.0000                                                                                                                                                                               
Al3   Al    0.852008594931531  0.852008563310471  0.852008384149200 0.0100 1.0000                                                                                                                                                                               
Al4   Al    0.352008566177080  0.352008578525019  0.352008370514829 0.0100 1.0000                                                                                                                                                                               
