#
# CIF written by cell_write_cif: Keith Refson, Apr 2010
#
data_al2o3_xc-PBESOL_c-0900_k-5x5x5_geom
_audit_creation_date '02:02:28 (GMT+1.0) 6th November 2021'
_audit_creation_method 'Generated by CASTEP 19.110'
 
_symmetry_space_group_name_H-M     'P1'
_symmetry_Int_Tables_number           1
 
_cell_length_a            5.137795657139645
_cell_length_b            5.137796889457815
_cell_length_c            5.137795913981538
_cell_angle_alpha        55.337404505667081
_cell_angle_beta         55.337401159215609
_cell_angle_gamma        55.337400915042110
 
loop_
_atom_site_label
_atom_site_type_symbol
_atom_site_fract_x
_atom_site_fract_y
_atom_site_fract_z
_atom_site_U_iso_or_equiv
_atom_site_occupancy
O1    O     0.555797033802084  0.944202985385770  0.249999892276822 0.0100 1.0000                                                                                                                                                                               
O2    O     0.944202551256921  0.250000019249743  0.555797394656560 0.0100 1.0000                                                                                                                                                                               
O3    O     0.249999993021338  0.555797272502166  0.944202714689085 0.0100 1.0000                                                                                                                                                                               
O4    O     0.055797444745928  0.750000070309083  0.444202526187721 0.0100 1.0000                                                                                                                                                                               
O5    O     0.750000116734457  0.444202917277275  0.055797036753478 0.0100 1.0000                                                                                                                                                                               
O6    O     0.444203186168469  0.055797067550471  0.749999767446451 0.0100 1.0000                                                                                                                                                                               
Al1   Al    0.147928768370886  0.147928784435172  0.147928445024001 0.0100 1.0000                                                                                                                                                                               
Al2   Al    0.647928721187757  0.647928785578180  0.647928636892291 0.0100 1.0000                                                                                                                                                                               
Al3   Al    0.852071401576473  0.852071369099350  0.852071262116197 0.0100 1.0000                                                                                                                                                                               
Al4   Al    0.352071389570592  0.352071335047696  0.352071111087585 0.0100 1.0000                                                                                                                                                                               
