#
# CIF written by cell_write_cif: Keith Refson, Apr 2010
#
data_al2o3_xc-PBESOL_c-1200_k-5x5x5_geom
_audit_creation_date '13:34:04 (GMT+1.0) 8th November 2021'
_audit_creation_method 'Generated by CASTEP 19.110'
 
_symmetry_space_group_name_H-M     'P1'
_symmetry_Int_Tables_number           1
 
_cell_length_a            5.138528025818770
_cell_length_b            5.138529095469190
_cell_length_c            5.138529296008967
_cell_angle_alpha        55.338693144641432
_cell_angle_beta         55.338725436725753
_cell_angle_gamma        55.338711063513102
 
loop_
_atom_site_label
_atom_site_type_symbol
_atom_site_fract_x
_atom_site_fract_y
_atom_site_fract_z
_atom_site_U_iso_or_equiv
_atom_site_occupancy
O1    O     0.555641879844404  0.944358118233503  0.249999714300535 0.0100 1.0000                                                                                                                                                                               
O2    O     0.944357952150857  0.250000098723028  0.555642093305978 0.0100 1.0000                                                                                                                                                                               
O3    O     0.250000059811877  0.555642008281564  0.944358034465119 0.0100 1.0000                                                                                                                                                                               
O4    O     0.055642141522748  0.750000009643812  0.444357698724143 0.0100 1.0000                                                                                                                                                                               
O5    O     0.750000242031786  0.444358164554733  0.055641631894669 0.0100 1.0000                                                                                                                                                                               
O6    O     0.444358173793098  0.055641997630023  0.749999978722394 0.0100 1.0000                                                                                                                                                                               
Al1   Al    0.147894321360261  0.147894319089357  0.147894186472011 0.0100 1.0000                                                                                                                                                                               
Al2   Al    0.647894339727476  0.647894284338404  0.647894198205350 0.0100 1.0000                                                                                                                                                                               
Al3   Al    0.852105755086133  0.852105814923209  0.852105627941718 0.0100 1.0000                                                                                                                                                                               
Al4   Al    0.352105741106265  0.352105791017271  0.352105623098273 0.0100 1.0000                                                                                                                                                                               
