#
# CIF written by cell_write_cif: Keith Refson, Apr 2010
#
data_al2o3_xc-LDA_c-0400_k-5x5x5_geom
_audit_creation_date '00:13:44 (GMT+1.0) 6th November 2021'
_audit_creation_method 'Generated by CASTEP 19.110'
 
_symmetry_space_group_name_H-M     'P1'
_symmetry_Int_Tables_number           1
 
_cell_length_a            5.386652826528623
_cell_length_b            5.386652841889230
_cell_length_c            5.386652827181996
_cell_angle_alpha        55.346967687023891
_cell_angle_beta         55.346967827444360
_cell_angle_gamma        55.346967323195763
 
loop_
_atom_site_label
_atom_site_type_symbol
_atom_site_fract_x
_atom_site_fract_y
_atom_site_fract_z
_atom_site_U_iso_or_equiv
_atom_site_occupancy
O1    O     0.562229489618450  0.937770633219864  0.249999890698952 0.0100 1.0000                                                                                                                                                                               
O2    O     0.937770608854886  0.250000080553568  0.562229265885940 0.0100 1.0000                                                                                                                                                                               
O3    O     0.250000064193563  0.562229502238924  0.937770454816851 0.0100 1.0000                                                                                                                                                                               
O4    O     0.062229540220355  0.750000012720873  0.437770488812032 0.0100 1.0000                                                                                                                                                                               
O5    O     0.750000066671500  0.437770626419350  0.062229293993095 0.0100 1.0000                                                                                                                                                                               
O6    O     0.437770601425092  0.062229495430489  0.749999889765392 0.0100 1.0000                                                                                                                                                                               
Al1   Al    0.147985617547178  0.147985626677566  0.147985493529590 0.0100 1.0000                                                                                                                                                                               
Al2   Al    0.647985655996202  0.647985620599101  0.647985412533572 0.0100 1.0000                                                                                                                                                                               
Al3   Al    0.852014501239539  0.852014515271351  0.852014305014248 0.0100 1.0000                                                                                                                                                                               
Al4   Al    0.352014460668141  0.352014493303820  0.352014292080516 0.0100 1.0000                                                                                                                                                                               
