#
# CIF written by cell_write_cif: Keith Refson, Apr 2010
#
data_al2o3_xc-PBESOL_c-0500_k-5x5x5_geom
_audit_creation_date '01:12:50 (GMT+1.0) 6th November 2021'
_audit_creation_method 'Generated by CASTEP 19.110'
 
_symmetry_space_group_name_H-M     'P1'
_symmetry_Int_Tables_number           1
 
_cell_length_a            5.232939618373018
_cell_length_b            5.232849071569726
_cell_length_c            5.232940308484341
_cell_angle_alpha        55.541142095956296
_cell_angle_beta         55.540516527428835
_cell_angle_gamma        55.541142695660625
 
loop_
_atom_site_label
_atom_site_type_symbol
_atom_site_fract_x
_atom_site_fract_y
_atom_site_fract_z
_atom_site_U_iso_or_equiv
_atom_site_occupancy
O1    O     0.552265412247886  0.947734862172253  0.249999839964618 0.0100 1.0000                                                                                                                                                                               
O2    O     0.947735036593105  0.250000114978275  0.552264828113862 0.0100 1.0000                                                                                                                                                                               
O3    O     0.249999931394786  0.552265401948565  0.947734555633752 0.0100 1.0000                                                                                                                                                                               
O4    O     0.052264855688036  0.750000019817878  0.447735174546153 0.0100 1.0000                                                                                                                                                                               
O5    O     0.750000165192860  0.447734983096411  0.052264921285087 0.0100 1.0000                                                                                                                                                                               
O6    O     0.447735008208847  0.052264964982492  0.749999913070287 0.0100 1.0000                                                                                                                                                                               
Al1   Al    0.147534393673341  0.147534131195438  0.147534704437097 0.0100 1.0000                                                                                                                                                                               
Al2   Al    0.647534985126803  0.647534230946273  0.647534384071772 0.0100 1.0000                                                                                                                                                                               
Al3   Al    0.852465588800468  0.852465879652176  0.852464962303995 0.0100 1.0000                                                                                                                                                                               
Al4   Al    0.352465229508773  0.352466017645144  0.352465503703567 0.0100 1.0000                                                                                                                                                                               
