#
# CIF written by cell_write_cif: Keith Refson, Apr 2010
#
data_al2o3_xc-LDA_c-0600_k-2x2x2_geom
_audit_creation_date '12:47:03 (GMT+1.0) 10th November 2021'
_audit_creation_method 'Generated by CASTEP 19.110'
 
_symmetry_space_group_name_H-M     'P1'
_symmetry_Int_Tables_number           1
 
_cell_length_a            5.115656690123409
_cell_length_b            5.115657813175998
_cell_length_c            5.115655856352492
_cell_angle_alpha        55.321123533161732
_cell_angle_beta         55.321120345693636
_cell_angle_gamma        55.321149695001154
 
loop_
_atom_site_label
_atom_site_type_symbol
_atom_site_fract_x
_atom_site_fract_y
_atom_site_fract_z
_atom_site_U_iso_or_equiv
_atom_site_occupancy
O1    O     0.555934017943142  0.944066036281934  0.249999974222700 0.0100 1.0000                                                                                                                                                                               
O2    O     0.944064694493318  0.250000358839437  0.555935033976067 0.0100 1.0000                                                                                                                                                                               
O3    O     0.249999653013573  0.555935305140671  0.944064899639397 0.0100 1.0000                                                                                                                                                                               
O4    O     0.055935286328301  0.749999967181568  0.444064896206307 0.0100 1.0000                                                                                                                                                                               
O5    O     0.750000130676328  0.444064942972288  0.055934585164297 0.0100 1.0000                                                                                                                                                                               
O6    O     0.444066308556426  0.055933939882825  0.749999942875651 0.0100 1.0000                                                                                                                                                                               
Al1   Al    0.148028816743498  0.148028556773626  0.148028514337453 0.0100 1.0000                                                                                                                                                                               
Al2   Al    0.648028641487166  0.648028707813070  0.648028600021616 0.0100 1.0000                                                                                                                                                                               
Al3   Al    0.851971410173483  0.851971462833013  0.851971200133483 0.0100 1.0000                                                                                                                                                                               
Al4   Al    0.351971647019671  0.351971328716473  0.351971140553219 0.0100 1.0000                                                                                                                                                                               
