#
# CIF written by cell_write_cif: Keith Refson, Apr 2010
#
data_al2o3_xc-LDA_c-0900_k-5x5x5_geom
_audit_creation_date '00:53:12 (GMT+1.0) 6th November 2021'
_audit_creation_method 'Generated by CASTEP 19.110'
 
_symmetry_space_group_name_H-M     'P1'
_symmetry_Int_Tables_number           1
 
_cell_length_a            5.091502096202804
_cell_length_b            5.091502199882001
_cell_length_c            5.091502330654023
_cell_angle_alpha        55.371007872127571
_cell_angle_beta         55.371003560424377
_cell_angle_gamma        55.371005794907710
 
loop_
_atom_site_label
_atom_site_type_symbol
_atom_site_fract_x
_atom_site_fract_y
_atom_site_fract_z
_atom_site_U_iso_or_equiv
_atom_site_occupancy
O1    O     0.555858295413750  0.944141333358564  0.250000110051379 0.0100 1.0000                                                                                                                                                                               
O2    O     0.944141402365675  0.250000147942410  0.555858002687867 0.0100 1.0000                                                                                                                                                                               
O3    O     0.250000398147057  0.555858117854610  0.944141028562077 0.0100 1.0000                                                                                                                                                                               
O4    O     0.055859045000486  0.750000006553031  0.444141464847675 0.0100 1.0000                                                                                                                                                                               
O5    O     0.749999684996718  0.444141826708555  0.055858850952475 0.0100 1.0000                                                                                                                                                                               
O6    O     0.444141578334835  0.055858823578978  0.749999889879945 0.0100 1.0000                                                                                                                                                                               
Al1   Al    0.147992204962038  0.147992298534033  0.147992044983088 0.0100 1.0000                                                                                                                                                                               
Al2   Al    0.647991464415782  0.647991531266415  0.647991304580155 0.0100 1.0000                                                                                                                                                                               
Al3   Al    0.852007919081229  0.852007898457018  0.852007676651929 0.0100 1.0000                                                                                                                                                                               
Al4   Al    0.352008613717333  0.352008622181291  0.352008413933599 0.0100 1.0000                                                                                                                                                                               
