#
# CIF written by cell_write_cif: Keith Refson, Apr 2010
#
data_al2o3_xc-PBESOL_c-0600_k-3x3x3_geom
_audit_creation_date '13:32:21 (GMT+1.0) 10th November 2021'
_audit_creation_method 'Generated by CASTEP 19.110'
 
_symmetry_space_group_name_H-M     'P1'
_symmetry_Int_Tables_number           1
 
_cell_length_a            5.166451766983265
_cell_length_b            5.166453073309448
_cell_length_c            5.166454392838106
_cell_angle_alpha        55.273500444645244
_cell_angle_beta         55.273549345439314
_cell_angle_gamma        55.273549744231623
 
loop_
_atom_site_label
_atom_site_type_symbol
_atom_site_fract_x
_atom_site_fract_y
_atom_site_fract_z
_atom_site_U_iso_or_equiv
_atom_site_occupancy
O1    O     0.556524189542741  0.943476450786900  0.249999679718796 0.0100 1.0000                                                                                                                                                                               
O2    O     0.943475962760006  0.250000152825118  0.556523238830057 0.0100 1.0000                                                                                                                                                                               
O3    O     0.250000309078967  0.556524228926516  0.943475652222075 0.0100 1.0000                                                                                                                                                                               
O4    O     0.056524292437780  0.749999875275328  0.443476248559967 0.0100 1.0000                                                                                                                                                                               
O5    O     0.749999864713900  0.443475817863183  0.056524298008964 0.0100 1.0000                                                                                                                                                                               
O6    O     0.443475692719147  0.056523924948214  0.750000163327548 0.0100 1.0000                                                                                                                                                                               
Al1   Al    0.147922568972800  0.147922597827622  0.147922428023805 0.0100 1.0000                                                                                                                                                                               
Al2   Al    0.647922525638628  0.647922614446576  0.647922451869536 0.0100 1.0000                                                                                                                                                                               
Al3   Al    0.852077541713411  0.852077456100739  0.852077347206806 0.0100 1.0000                                                                                                                                                                               
Al4   Al    0.352077658857523  0.352077487434707  0.352077279362636 0.0100 1.0000                                                                                                                                                                               
