#
# CIF written by cell_write_cif: Keith Refson, Apr 2010
#
data_al2o3_xc-LDA_c-0800_k-5x5x5_geom
_audit_creation_date '00:44:28 (GMT+1.0) 6th November 2021'
_audit_creation_method 'Generated by CASTEP 19.110'
 
_symmetry_space_group_name_H-M     'P1'
_symmetry_Int_Tables_number           1
 
_cell_length_a            5.092041619085665
_cell_length_b            5.092041650704881
_cell_length_c            5.092041317895895
_cell_angle_alpha        55.360966717815280
_cell_angle_beta         55.360969777625279
_cell_angle_gamma        55.360963908059624
 
loop_
_atom_site_label
_atom_site_type_symbol
_atom_site_fract_x
_atom_site_fract_y
_atom_site_fract_z
_atom_site_U_iso_or_equiv
_atom_site_occupancy
O1    O     0.555810343565613  0.944189131098816  0.250000025739184 0.0100 1.0000                                                                                                                                                                               
O2    O     0.944189094851641  0.250000212555943  0.555810181918204 0.0100 1.0000                                                                                                                                                                               
O3    O     0.250000352953854  0.555810398377936  0.944188832474251 0.0100 1.0000                                                                                                                                                                               
O4    O     0.055811043794705  0.749999833236561  0.444189606442605 0.0100 1.0000                                                                                                                                                                               
O5    O     0.749999752350243  0.444189698247584  0.055810978405345 0.0100 1.0000                                                                                                                                                                               
O6    O     0.444189767934065  0.055811090184573  0.749999704057899 0.0100 1.0000                                                                                                                                                                               
Al1   Al    0.147990947831872  0.147990961784555  0.147990774224715 0.0100 1.0000                                                                                                                                                                               
Al2   Al    0.647990059932491  0.647990067439910  0.647989838709367 0.0100 1.0000                                                                                                                                                                               
Al3   Al    0.852009174313023  0.852009161456373  0.852008962865158 0.0100 1.0000                                                                                                                                                                               
Al4   Al    0.352010068907398  0.352010052052653  0.352009882293462 0.0100 1.0000                                                                                                                                                                               
