#
# CIF written by cell_write_cif: Keith Refson, Apr 2010
#
data_al2o3_xc-LDA_c-1400_k-5x5x5_geom
_audit_creation_date '12:02:38 (GMT+1.0) 8th November 2021'
_audit_creation_method 'Generated by CASTEP 19.110'
 
_symmetry_space_group_name_H-M     'P1'
_symmetry_Int_Tables_number           1
 
_cell_length_a            5.090888217523758
_cell_length_b            5.090888225534962
_cell_length_c            5.090887548339220
_cell_angle_alpha        55.370832396571686
_cell_angle_beta         55.370835801075636
_cell_angle_gamma        55.370827535816225
 
loop_
_atom_site_label
_atom_site_type_symbol
_atom_site_fract_x
_atom_site_fract_y
_atom_site_fract_z
_atom_site_U_iso_or_equiv
_atom_site_occupancy
O1    O     0.555862584151859  0.944137737684485  0.249999764792256 0.0100 1.0000                                                                                                                                                                               
O2    O     0.944137960024433  0.249999964234796  0.555862229810828 0.0100 1.0000                                                                                                                                                                               
O3    O     0.250000431307464  0.555862204519773  0.944137041979700 0.0100 1.0000                                                                                                                                                                               
O4    O     0.055862273094521  0.750000214282640  0.444137498310809 0.0100 1.0000                                                                                                                                                                               
O5    O     0.749999600982390  0.444138010443665  0.055862652697037 0.0100 1.0000                                                                                                                                                                               
O6    O     0.444137545810976  0.055862216036083  0.750000069874340 0.0100 1.0000                                                                                                                                                                               
Al1   Al    0.147990530442090  0.147990524541827  0.147990392784015 0.0100 1.0000                                                                                                                                                                               
Al2   Al    0.647990531460179  0.647990530615604  0.647990356041441 0.0100 1.0000                                                                                                                                                                               
Al3   Al    0.852009620551596  0.852009608450202  0.852009354436287 0.0100 1.0000                                                                                                                                                                               
Al4   Al    0.352009528609398  0.352009595625830  0.352009426403477 0.0100 1.0000                                                                                                                                                                               
