#
# CIF written by cell_write_cif: Keith Refson, Apr 2010
#
data_al2o3_xc-PBESOL_c-0600_k-2x2x2_geom
_audit_creation_date '13:28:12 (GMT+1.0) 10th November 2021'
_audit_creation_method 'Generated by CASTEP 19.110'
 
_symmetry_space_group_name_H-M     'P1'
_symmetry_Int_Tables_number           1
 
_cell_length_a            5.178487909723769
_cell_length_b            5.178411828965224
_cell_length_c            5.179341039601838
_cell_angle_alpha        55.237915678823811
_cell_angle_beta         55.238112360040297
_cell_angle_gamma        55.240475585105536
 
loop_
_atom_site_label
_atom_site_type_symbol
_atom_site_fract_x
_atom_site_fract_y
_atom_site_fract_z
_atom_site_U_iso_or_equiv
_atom_site_occupancy
O1    O     0.556329827259314  0.943670421057573  0.249999811540657 0.0100 1.0000                                                                                                                                                                               
O2    O     0.943670292406839  0.250000097492527  0.556329610230869 0.0100 1.0000                                                                                                                                                                               
O3    O     0.250000105465955  0.556329598663993  0.943670246716064 0.0100 1.0000                                                                                                                                                                               
O4    O     0.056329709088902  0.749999989206230  0.443670315743437 0.0100 1.0000                                                                                                                                                                               
O5    O     0.749999995390681  0.443670691737624  0.056329332689013 0.0100 1.0000                                                                                                                                                                               
O6    O     0.443670464817443  0.056329532932715  0.749999991622167 0.0100 1.0000                                                                                                                                                                               
Al1   Al    0.147927831350699  0.147927932790773  0.147927753876848 0.0100 1.0000                                                                                                                                                                               
Al2   Al    0.647927875472120  0.647927942717082  0.647927797417621 0.0100 1.0000                                                                                                                                                                               
Al3   Al    0.852072225202327  0.852072178832744  0.852071970312341 0.0100 1.0000                                                                                                                                                                               
Al4   Al    0.352072279980625  0.352072221003644  0.352071956981174 0.0100 1.0000                                                                                                                                                                               
