#
# CIF written by cell_write_cif: Keith Refson, Apr 2010
#
data_al2o3_xc-LDA_c-0600_k-1x1x1_geom
_audit_creation_date '12:46:05 (GMT+1.0) 10th November 2021'
_audit_creation_method 'Generated by CASTEP 19.110'
 
_symmetry_space_group_name_H-M     'P1'
_symmetry_Int_Tables_number           1
 
_cell_length_a            5.130007253755318
_cell_length_b            5.130006985395042
_cell_length_c            5.129986356023482
_cell_angle_alpha        55.012670872284403
_cell_angle_beta         55.012789106825714
_cell_angle_gamma        55.012714846419364
 
loop_
_atom_site_label
_atom_site_type_symbol
_atom_site_fract_x
_atom_site_fract_y
_atom_site_fract_z
_atom_site_U_iso_or_equiv
_atom_site_occupancy
O1    O     0.561373103815243  0.938626979421533  0.249999018321052 0.0100 1.0000                                                                                                                                                                               
O2    O     0.938627026738031  0.249999751286790  0.561371489856665 0.0100 1.0000                                                                                                                                                                               
O3    O     0.249999617799618  0.561372982044132  0.938627820304767 0.0100 1.0000                                                                                                                                                                               
O4    O     0.061373236656414  0.750000290683462  0.438628154461638 0.0100 1.0000                                                                                                                                                                               
O5    O     0.750000089854750  0.438627579459515  0.061372192153172 0.0100 1.0000                                                                                                                                                                               
O6    O     0.438627610886840  0.061372858960459  0.750000530861238 0.0100 1.0000                                                                                                                                                                               
Al1   Al    0.147925264034582  0.147925392957350  0.147925394473680 0.0100 1.0000                                                                                                                                                                               
Al2   Al    0.647925223033812  0.647925386952248  0.647925608119380 0.0100 1.0000                                                                                                                                                                               
Al3   Al    0.852074680669545  0.852074635344533  0.852074541142131 0.0100 1.0000                                                                                                                                                                               
Al4   Al    0.352074752946072  0.352074749324883  0.352074037436466 0.0100 1.0000                                                                                                                                                                               
