#
# CIF written by cell_write_cif: Keith Refson, Apr 2010
#
data_al2o3_xc-PBESOL_c-1400_k-5x5x5_geom
_audit_creation_date '14:05:39 (GMT+1.0) 8th November 2021'
_audit_creation_method 'Generated by CASTEP 19.110'
 
_symmetry_space_group_name_H-M     'P1'
_symmetry_Int_Tables_number           1
 
_cell_length_a            5.138696969259699
_cell_length_b            5.138694452839762
_cell_length_c            5.138695579355033
_cell_angle_alpha        55.337043227032503
_cell_angle_beta         55.337093588825780
_cell_angle_gamma        55.337042237495567
 
loop_
_atom_site_label
_atom_site_type_symbol
_atom_site_fract_x
_atom_site_fract_y
_atom_site_fract_z
_atom_site_U_iso_or_equiv
_atom_site_occupancy
O1    O     0.556102792635938  0.943897274326716  0.249999936380268 0.0100 1.0000                                                                                                                                                                               
O2    O     0.943896845375204  0.250000095809039  0.556103159101285 0.0100 1.0000                                                                                                                                                                               
O3    O     0.250000204397733  0.556102583856260  0.943897229591298 0.0100 1.0000                                                                                                                                                                               
O4    O     0.056103128417990  0.750000112432166  0.443896646984549 0.0100 1.0000                                                                                                                                                                               
O5    O     0.749999984220605  0.443897704495601  0.056102416697391 0.0100 1.0000                                                                                                                                                                               
O6    O     0.443897407981774  0.056102580928328  0.749999940204950 0.0100 1.0000                                                                                                                                                                               
Al1   Al    0.147922188754345  0.147922157049595  0.147922018590620 0.0100 1.0000                                                                                                                                                                               
Al2   Al    0.647922189238217  0.647922193212251  0.647921995635671 0.0100 1.0000                                                                                                                                                                               
Al3   Al    0.852077939581386  0.852077964028512  0.852077706636262 0.0100 1.0000                                                                                                                                                                               
Al4   Al    0.352077925831711  0.352077940296436  0.352077737307897 0.0100 1.0000                                                                                                                                                                               
