#
# CIF written by cell_write_cif: Keith Refson, Apr 2010
#
data_al2o3_xc-PBESOL_c-0600_k-7x7x7_geom
_audit_creation_date '14:14:59 (GMT+1.0) 10th November 2021'
_audit_creation_method 'Generated by CASTEP 19.110'
 
_symmetry_space_group_name_H-M     'P1'
_symmetry_Int_Tables_number           1
 
_cell_length_a            5.167057271947792
_cell_length_b            5.167057177049322
_cell_length_c            5.167057238487474
_cell_angle_alpha        55.284410404380054
_cell_angle_beta         55.284411643125715
_cell_angle_gamma        55.284410825013339
 
loop_
_atom_site_label
_atom_site_type_symbol
_atom_site_fract_x
_atom_site_fract_y
_atom_site_fract_z
_atom_site_U_iso_or_equiv
_atom_site_occupancy
O1    O     0.556499007128242  0.943501110208894  0.249999876242513 0.0100 1.0000                                                                                                                                                                               
O2    O     0.943501128696361  0.250000040297509  0.556498838832070 0.0100 1.0000                                                                                                                                                                               
O3    O     0.250000077058352  0.556499033691418  0.943500898621906 0.0100 1.0000                                                                                                                                                                               
O4    O     0.056498980162891  0.750000078149705  0.443500930862301 0.0100 1.0000                                                                                                                                                                               
O5    O     0.750000044854786  0.443501108906401  0.056498843258382 0.0100 1.0000                                                                                                                                                                               
O6    O     0.443501127086057  0.056498994351111  0.749999883379643 0.0100 1.0000                                                                                                                                                                               
Al1   Al    0.147920685477260  0.147920691599996  0.147920519811320 0.0100 1.0000                                                                                                                                                                               
Al2   Al    0.647920701914212  0.647920694572808  0.647920516360081 0.0100 1.0000                                                                                                                                                                               
Al3   Al    0.852079433396288  0.852079424819967  0.852079242671724 0.0100 1.0000                                                                                                                                                                               
Al4   Al    0.352079420660455  0.352079429837097  0.352079237090248 0.0100 1.0000                                                                                                                                                                               
