#
# CIF written by cell_write_cif: Keith Refson, Apr 2010
#
data_al2o3_xc-PBESOL_c-0200_k-5x5x5_geom
_audit_creation_date '01:00:08 (GMT+1.0) 6th November 2021'
_audit_creation_method 'Generated by CASTEP 19.110'
 
_symmetry_space_group_name_H-M     'P1'
_symmetry_Int_Tables_number           1
 
_cell_length_a            6.034255916778552
_cell_length_b            6.034255952312075
_cell_length_c            6.034255952392016
_cell_angle_alpha        56.515137853329932
_cell_angle_beta         56.515138596231466
_cell_angle_gamma        56.515138602151950
 
loop_
_atom_site_label
_atom_site_type_symbol
_atom_site_fract_x
_atom_site_fract_y
_atom_site_fract_z
_atom_site_U_iso_or_equiv
_atom_site_occupancy
O1    O     0.547326111212938  0.952232016713631  0.250203634959924 0.0100 1.0000                                                                                                                                                                               
O2    O     0.952232006554088  0.250203814885789  0.547325926359095 0.0100 1.0000                                                                                                                                                                               
O3    O     0.250203816669857  0.547326126791467  0.952231817029309 0.0100 1.0000                                                                                                                                                                               
O4    O     0.047768105941026  0.749796301589455  0.452673833922415 0.0100 1.0000                                                                                                                                                                               
O5    O     0.749796304216697  0.452674001402269  0.047767938040723 0.0100 1.0000                                                                                                                                                                               
O6    O     0.452674018131661  0.047768098302985  0.749796121995138 0.0100 1.0000                                                                                                                                                                               
Al1   Al    0.152540661957190  0.152540668714781  0.152540502195271 0.0100 1.0000                                                                                                                                                                               
Al2   Al    0.653010618207426  0.653010644297390  0.653010444999884 0.0100 1.0000                                                                                                                                                                               
Al3   Al    0.847459459766001  0.847459451161726  0.847459254635805 0.0100 1.0000                                                                                                                                                                               
Al4   Al    0.346989503778008  0.346989482575420  0.346989312992619 0.0100 1.0000                                                                                                                                                                               
