#
# CIF written by cell_write_cif: Keith Refson, Apr 2010
#
data_al2o3_xc-LDA_c-0300_k-5x5x5_geom
_audit_creation_date '00:08:54 (GMT+1.0) 6th November 2021'
_audit_creation_method 'Generated by CASTEP 19.110'
 
_symmetry_space_group_name_H-M     'P1'
_symmetry_Int_Tables_number           1
 
_cell_length_a            5.274001420071230
_cell_length_b            5.274001173512623
_cell_length_c            5.274001077739084
_cell_angle_alpha        56.322162846978564
_cell_angle_beta         56.322159936185024
_cell_angle_gamma        56.322145828846985
 
loop_
_atom_site_label
_atom_site_type_symbol
_atom_site_fract_x
_atom_site_fract_y
_atom_site_fract_z
_atom_site_U_iso_or_equiv
_atom_site_occupancy
O1    O     0.540291170650776  0.959662937915864  0.249997265029582 0.0100 1.0000                                                                                                                                                                               
O2    O     0.959663102582285  0.249997379973227  0.540291012852380 0.0100 1.0000                                                                                                                                                                               
O3    O     0.249997469813583  0.540291060805482  0.959662853743652 0.0100 1.0000                                                                                                                                                                               
O4    O     0.040337027070292  0.750002744336388  0.459708751743029 0.0100 1.0000                                                                                                                                                                               
O5    O     0.750002649720436  0.459709060980481  0.040336901059120 0.0100 1.0000                                                                                                                                                                               
O6    O     0.459708944091454  0.040337178522896  0.750002491428933 0.0100 1.0000                                                                                                                                                                               
Al1   Al    0.143820183756597  0.143820202244151  0.143820064503229 0.0100 1.0000                                                                                                                                                                               
Al2   Al    0.643825204618762  0.643825228798670  0.643825093885205 0.0100 1.0000                                                                                                                                                                               
Al3   Al    0.856179935411789  0.856179921384405  0.856179692783055 0.0100 1.0000                                                                                                                                                                               
Al4   Al    0.356174918718932  0.356174891473341  0.356174660102004 0.0100 1.0000                                                                                                                                                                               
