#
# CIF written by cell_write_cif: Keith Refson, Apr 2010
#
data_al2o3_xc-PBESOL_c-0600_k-5x5x5_geom
_audit_creation_date '13:42:45 (GMT+1.0) 10th November 2021'
_audit_creation_method 'Generated by CASTEP 19.110'
 
_symmetry_space_group_name_H-M     'P1'
_symmetry_Int_Tables_number           1
 
_cell_length_a            5.168922170850559
_cell_length_b            5.168921763184802
_cell_length_c            5.168922065282737
_cell_angle_alpha        55.271403782202192
_cell_angle_beta         55.271401868125650
_cell_angle_gamma        55.271403822526473
 
loop_
_atom_site_label
_atom_site_type_symbol
_atom_site_fract_x
_atom_site_fract_y
_atom_site_fract_z
_atom_site_U_iso_or_equiv
_atom_site_occupancy
O1    O     0.556451249283493  0.943548906860217  0.249999884526959 0.0100 1.0000                                                                                                                                                                               
O2    O     0.943548853073139  0.250000063826861  0.556451071730094 0.0100 1.0000                                                                                                                                                                               
O3    O     0.250000067996632  0.556451189409527  0.943548709468006 0.0100 1.0000                                                                                                                                                                               
O4    O     0.056451293918647  0.750000055830193  0.443548687166109 0.0100 1.0000                                                                                                                                                                               
O5    O     0.750000033774112  0.443548905664058  0.056451073838328 0.0100 1.0000                                                                                                                                                                               
O6    O     0.443548852325063  0.056451247390777  0.749999871113583 0.0100 1.0000                                                                                                                                                                               
Al1   Al    0.147919726961452  0.147919768857793  0.147919563722011 0.0100 1.0000                                                                                                                                                                               
Al2   Al    0.647919740188170  0.647919743352286  0.647919578869415 0.0100 1.0000                                                                                                                                                                               
Al3   Al    0.852080389363500  0.852080369761058  0.852080177008924 0.0100 1.0000                                                                                                                                                                               
Al4   Al    0.352080399550697  0.352080355482136  0.352080169686760 0.0100 1.0000                                                                                                                                                                               
