#
# CIF written by cell_write_cif: Keith Refson, Apr 2010
#
data_al2o3_xc-PBESOL_c-0700_k-5x5x5_geom
_audit_creation_date '01:26:05 (GMT+1.0) 6th November 2021'
_audit_creation_method 'Generated by CASTEP 19.110'
 
_symmetry_space_group_name_H-M     'P1'
_symmetry_Int_Tables_number           1
 
_cell_length_a            5.143288997359369
_cell_length_b            5.143289580944637
_cell_length_c            5.143289332849803
_cell_angle_alpha        55.355359287387820
_cell_angle_beta         55.355364889088975
_cell_angle_gamma        55.355371143119562
 
loop_
_atom_site_label
_atom_site_type_symbol
_atom_site_fract_x
_atom_site_fract_y
_atom_site_fract_z
_atom_site_U_iso_or_equiv
_atom_site_occupancy
O1    O     0.555806688150922  0.944193279098760  0.249999856127063 0.0100 1.0000                                                                                                                                                                               
O2    O     0.944193511236364  0.250000011153326  0.555806500622899 0.0100 1.0000                                                                                                                                                                               
O3    O     0.250000053094637  0.555806333291299  0.944193530520886 0.0100 1.0000                                                                                                                                                                               
O4    O     0.055806477916166  0.750000146674848  0.444193262555723 0.0100 1.0000                                                                                                                                                                               
O5    O     0.750000041505906  0.444193949211384  0.055806124194410 0.0100 1.0000                                                                                                                                                                               
O6    O     0.444193553516512  0.055806725119900  0.749999883013001 0.0100 1.0000                                                                                                                                                                               
Al1   Al    0.147927984026469  0.147927946614278  0.147927822616889 0.0100 1.0000                                                                                                                                                                               
Al2   Al    0.647928034642256  0.647927934156474  0.647927798302838 0.0100 1.0000                                                                                                                                                                               
Al3   Al    0.852072156253394  0.852072118043598  0.852072005758159 0.0100 1.0000                                                                                                                                                                               
Al4   Al    0.352072106092280  0.352072163071037  0.352072003418320 0.0100 1.0000                                                                                                                                                                               
