#
# CIF written by cell_write_cif: Keith Refson, Apr 2010
#
data_al2o3_xc-PBESOL_c-0300_k-5x5x5_geom
_audit_creation_date '01:03:35 (GMT+1.0) 6th November 2021'
_audit_creation_method 'Generated by CASTEP 19.110'
 
_symmetry_space_group_name_H-M     'P1'
_symmetry_Int_Tables_number           1
 
_cell_length_a            5.328173137623533
_cell_length_b            5.328173427553750
_cell_length_c            5.328173354440362
_cell_angle_alpha        56.242028552637258
_cell_angle_beta         56.242032391501816
_cell_angle_gamma        56.242026916783118
 
loop_
_atom_site_label
_atom_site_type_symbol
_atom_site_fract_x
_atom_site_fract_y
_atom_site_fract_z
_atom_site_U_iso_or_equiv
_atom_site_occupancy
O1    O     0.539803137400352  0.960177980771281  0.249980356805819 0.0100 1.0000                                                                                                                                                                               
O2    O     0.960178004845409  0.249980550483121  0.539802883184837 0.0100 1.0000                                                                                                                                                                               
O3    O     0.249980583882164  0.539803078044607  0.960177777002803 0.0100 1.0000                                                                                                                                                                               
O4    O     0.039822116036401  0.750019570299821  0.460196869237029 0.0100 1.0000                                                                                                                                                                               
O5    O     0.750019537549270  0.460197041298100  0.039821985147301 0.0100 1.0000                                                                                                                                                                               
O6    O     0.460196983270461  0.039822143580318  0.750019400418638 0.0100 1.0000                                                                                                                                                                               
Al1   Al    0.143950782312290  0.143950759617686  0.143950608985109 0.0100 1.0000                                                                                                                                                                               
Al2   Al    0.643930672513639  0.643930649537288  0.643930482232747 0.0100 1.0000                                                                                                                                                                               
Al3   Al    0.856049339944323  0.856049360229346  0.856049148380983 0.0100 1.0000                                                                                                                                                                               
Al4   Al    0.356069448680598  0.356069472573337  0.356069275734923 0.0100 1.0000                                                                                                                                                                               
