#
# CIF written by cell_write_cif: Keith Refson, Apr 2010
#
data_al2o3_xc-LDA_c-0500_k-5x5x5_geom
_audit_creation_date '00:22:22 (GMT+1.0) 6th November 2021'
_audit_creation_method 'Generated by CASTEP 19.110'
 
_symmetry_space_group_name_H-M     'P1'
_symmetry_Int_Tables_number           1
 
_cell_length_a            5.178320843904283
_cell_length_b            5.178320790350391
_cell_length_c            5.178320805524820
_cell_angle_alpha        55.574697984603546
_cell_angle_beta         55.574697749531850
_cell_angle_gamma        55.574698456046711
 
loop_
_atom_site_label
_atom_site_type_symbol
_atom_site_fract_x
_atom_site_fract_y
_atom_site_fract_z
_atom_site_U_iso_or_equiv
_atom_site_occupancy
O1    O     0.552087687238491  0.947912378390753  0.249999925438432 0.0100 1.0000                                                                                                                                                                               
O2    O     0.947912395621487  0.250000017428809  0.552087649750959 0.0100 1.0000                                                                                                                                                                               
O3    O     0.250000064186940  0.552087688384816  0.947912210213811 0.0100 1.0000                                                                                                                                                                               
O4    O     0.052087980234567  0.750000093897081  0.447911888670216 0.0100 1.0000                                                                                                                                                                               
O5    O     0.750000096307114  0.447912095879657  0.052087850654575 0.0100 1.0000                                                                                                                                                                               
O6    O     0.447912069716916  0.052088121555834  0.749999798394175 0.0100 1.0000                                                                                                                                                                               
Al1   Al    0.147598852374228  0.147598826645591  0.147598664913066 0.0100 1.0000                                                                                                                                                                               
Al2   Al    0.647598834926674  0.647598787605209  0.647598598777604 0.0100 1.0000                                                                                                                                                                               
Al3   Al    0.852401351601410  0.852401322043758  0.852401111741463 0.0100 1.0000                                                                                                                                                                               
Al4   Al    0.352401274227080  0.352401274603398  0.352401088575887 0.0100 1.0000                                                                                                                                                                               
