#
# CIF written by cell_write_cif: Keith Refson, Apr 2010
#
data_al2o3_xc-PBESOL_c-0600_k-8x8x8_geom
_audit_creation_date '14:35:27 (GMT+1.0) 10th November 2021'
_audit_creation_method 'Generated by CASTEP 19.110'
 
_symmetry_space_group_name_H-M     'P1'
_symmetry_Int_Tables_number           1
 
_cell_length_a            5.166016960291342
_cell_length_b            5.166016746052573
_cell_length_c            5.166017076756984
_cell_angle_alpha        55.299538703197108
_cell_angle_beta         55.299535407713243
_cell_angle_gamma        55.299537450113739
 
loop_
_atom_site_label
_atom_site_type_symbol
_atom_site_fract_x
_atom_site_fract_y
_atom_site_fract_z
_atom_site_U_iso_or_equiv
_atom_site_occupancy
O1    O     0.556376653392022  0.943623419552426  0.249999907266611 0.0100 1.0000                                                                                                                                                                               
O2    O     0.943623613585823  0.250000046884274  0.556376377642668 0.0100 1.0000                                                                                                                                                                               
O3    O     0.250000087784962  0.556376572494884  0.943623331959270 0.0100 1.0000                                                                                                                                                                               
O4    O     0.056376529018208  0.750000070972748  0.443623376652873 0.0100 1.0000                                                                                                                                                                               
O5    O     0.750000022424614  0.443623533753740  0.056376463321643 0.0100 1.0000                                                                                                                                                                               
O6    O     0.443623472792408  0.056376703466596  0.749999824561934 0.0100 1.0000                                                                                                                                                                               
Al1   Al    0.147908132434056  0.147908161861009  0.147908050130035 0.0100 1.0000                                                                                                                                                                               
Al2   Al    0.647908204045584  0.647908157697908  0.647907984518175 0.0100 1.0000                                                                                                                                                                               
Al3   Al    0.852091990612660  0.852091979492609  0.852091685461204 0.0100 1.0000                                                                                                                                                                               
Al4   Al    0.352091900344568  0.352091960258710  0.352091785615776 0.0100 1.0000                                                                                                                                                                               
