#
# CIF written by cell_write_cif: Keith Refson, Apr 2010
#
data_al2o3_xc-PBESOL_c-0400_k-5x5x5_geom
_audit_creation_date '01:07:15 (GMT+1.0) 6th November 2021'
_audit_creation_method 'Generated by CASTEP 19.110'
 
_symmetry_space_group_name_H-M     'P1'
_symmetry_Int_Tables_number           1
 
_cell_length_a            5.444075963500771
_cell_length_b            5.444075911995689
_cell_length_c            5.444075962607476
_cell_angle_alpha        55.382422163546181
_cell_angle_beta         55.382421546343444
_cell_angle_gamma        55.382422233996486
 
loop_
_atom_site_label
_atom_site_type_symbol
_atom_site_fract_x
_atom_site_fract_y
_atom_site_fract_z
_atom_site_U_iso_or_equiv
_atom_site_occupancy
O1    O     0.559354566572176  0.940645523804056  0.249999890388247 0.0100 1.0000                                                                                                                                                                               
O2    O     0.940645635964135  0.250000060658984  0.559354312169726 0.0100 1.0000                                                                                                                                                                               
O3    O     0.250000091328789  0.559354536836144  0.940645363841855 0.0100 1.0000                                                                                                                                                                               
O4    O     0.059354448558839  0.750000061180803  0.440645483191359 0.0100 1.0000                                                                                                                                                                               
O5    O     0.750000030289801  0.440645619770392  0.059354356783190 0.0100 1.0000                                                                                                                                                                               
O6    O     0.440645593335096  0.059354558749194  0.749999866524147 0.0100 1.0000                                                                                                                                                                               
Al1   Al    0.147929348429756  0.147929372165865  0.147929203530788 0.0100 1.0000                                                                                                                                                                               
Al2   Al    0.647929379847150  0.647929378732437  0.647929178446483 0.0100 1.0000                                                                                                                                                                               
Al3   Al    0.852070769655971  0.852070746952497  0.852070553544750 0.0100 1.0000                                                                                                                                                                               
Al4   Al    0.352070742453192  0.352070747584533  0.352070578709643 0.0100 1.0000                                                                                                                                                                               
