#
# CIF written by cell_write_cif: Keith Refson, Apr 2010
#
data_al2o3_xc-PBESOL_c-0700_k-2x2x2_sc-2x2x2_site-0_geom
_audit_creation_date '03:19:42 (GMT+1.0) 12th November 2021'
_audit_creation_method 'Generated by CASTEP 19.110'
 
_symmetry_space_group_name_H-M     'P1'
_symmetry_Int_Tables_number           1
 
_cell_length_a           10.277393880219877
_cell_length_b           10.277389105769762
_cell_length_c           10.277390748514382
_cell_angle_alpha        55.337046729778045
_cell_angle_beta         55.337093808862875
_cell_angle_gamma        55.337041131556774
 
loop_
_atom_site_label
_atom_site_type_symbol
_atom_site_fract_x
_atom_site_fract_y
_atom_site_fract_z
_atom_site_U_iso_or_equiv
_atom_site_occupancy
Li1   Li    0.249999985172402  0.250000097658205  0.249999970117401 0.0100 1.0000                                                                                                                                                                               
O1    O     0.280487898737122  0.465678481012306  0.130259431115212 0.0100 1.0000                                                                                                                                                                               
O2    O     0.465678413636919  0.130259427933794  0.280487983940849 0.0100 1.0000                                                                                                                                                                               
O3    O     0.130259421512555  0.280487953431976  0.465678520455579 0.0100 1.0000                                                                                                                                                                               
O4    O     0.034321575355056  0.369740657455391  0.219512046719552 0.0100 1.0000                                                                                                                                                                               
O5    O     0.369740574261843  0.219512121418934  0.034321513875103 0.0100 1.0000                                                                                                                                                                               
O6    O     0.219512107443936  0.034321589268243  0.369740604337064 0.0100 1.0000                                                                                                                                                                               
O7    O     0.277974668062029  0.474031469753980  0.626405054938751 0.0100 1.0000                                                                                                                                                                               
O8    O     0.471988369467039  0.124521122286231  0.779710838154687 0.0100 1.0000                                                                                                                                                                               
O9    O     0.125062114844732  0.275631975708907  0.968082120423467 0.0100 1.0000                                                                                                                                                                               
O10   O     0.028011601241373  0.375478896976251  0.720289200156041 0.0100 1.0000                                                                                                                                                                               
O11   O     0.374937839624765  0.224368100108627  0.531917930740131 0.0100 1.0000                                                                                                                                                                               
O12   O     0.222025321339953  0.025968548851161  0.873595016348368 0.0100 1.0000                                                                                                                                                                               
O13   O     0.275631853555358  0.968082110618162  0.125062168318775 0.0100 1.0000                                                                                                                                                                               
O14   O     0.474031478002668  0.626405049910127  0.277974656074810 0.0100 1.0000                                                                                                                                                                               
O15   O     0.124521137128556  0.779710862945915  0.471988345165814 0.0100 1.0000                                                                                                                                                                               
O16   O     0.025968464617448  0.873595019943568  0.222025361904206 0.0100 1.0000                                                                                                                                                                               
O17   O     0.375478817825458  0.720289182697425  0.028011682323856 0.0100 1.0000                                                                                                                                                                               
O18   O     0.224368116170632  0.531917930287689  0.374937887396070 0.0100 1.0000                                                                                                                                                                               
O19   O     0.277546989277624  0.973055760130872  0.623325618847926 0.0100 1.0000                                                                                                                                                                               
O20   O     0.472107830463918  0.625568286730579  0.777270451343038 0.0100 1.0000                                                                                                                                                                               
O21   O     0.125630470739130  0.775960615150166  0.972620977659822 0.0100 1.0000                                                                                                                                                                               
O22   O     0.027892131863100  0.874431800073898  0.722729516999434 0.0100 1.0000                                                                                                                                                                               
O23   O     0.374369515556125  0.724039433573144  0.527379042536869 0.0100 1.0000                                                                                                                                                                               
O24   O     0.222453001059403  0.526944297765765  0.876674413396147 0.0100 1.0000                                                                                                                                                                               
O25   O     0.779710775792156  0.471988309291252  0.124521127933187 0.0100 1.0000                                                                                                                                                                               
O26   O     0.968082165621015  0.125062177415948  0.275631952151668 0.0100 1.0000                                                                                                                                                                               
O27   O     0.626404990902993  0.277974769932588  0.474031447670631 0.0100 1.0000                                                                                                                                                                               
O28   O     0.531917750911106  0.374937879003809  0.224368117894108 0.0100 1.0000                                                                                                                                                                               
O29   O     0.873594925284679  0.222025251146541  0.025968634651755 0.0100 1.0000                                                                                                                                                                               
O30   O     0.720289160863580  0.028011716945482  0.375478896817108 0.0100 1.0000                                                                                                                                                                               
O31   O     0.777270427133894  0.472107825468425  0.625568256943784 0.0100 1.0000                                                                                                                                                                               
O32   O     0.972620892999388  0.125630502760838  0.775960601804097 0.0100 1.0000                                                                                                                                                                               
O33   O     0.623325462268946  0.277547082917119  0.973055852270138 0.0100 1.0000                                                                                                                                                                               
O34   O     0.527379055272076  0.374369540433758  0.724039466333651 0.0100 1.0000                                                                                                                                                                               
O35   O     0.876674480009620  0.222452970646145  0.526944179025359 0.0100 1.0000                                                                                                                                                                               
O36   O     0.722729474628702  0.027892215673423  0.874431816657554 0.0100 1.0000                                                                                                                                                                               
O37   O     0.775960472903086  0.972620901540523  0.125630593568912 0.0100 1.0000                                                                                                                                                                               
O38   O     0.973055838313763  0.623325547077122  0.277547042261481 0.0100 1.0000                                                                                                                                                                               
O39   O     0.625568224573159  0.777270535351840  0.472107835692461 0.0100 1.0000                                                                                                                                                                               
O40   O     0.526944107592712  0.876674526867574  0.222452972258242 0.0100 1.0000                                                                                                                                                                               
O41   O     0.874431783070566  0.722729463514919  0.027892157814451 0.0100 1.0000                                                                                                                                                                               
O42   O     0.724039442661948  0.527379140118303  0.374369462490357 0.0100 1.0000                                                                                                                                                                               
O43   O     0.778140764181800  0.972313730112614  0.624698034645974 0.0100 1.0000                                                                                                                                                                               
O44   O     0.972313712674886  0.624698035416622  0.778140770363631 0.0100 1.0000                                                                                                                                                                               
O45   O     0.624697950657061  0.778140875312391  0.972313700408364 0.0100 1.0000                                                                                                                                                                               
O46   O     0.527686186718020  0.875301993583373  0.721859257393280 0.0100 1.0000                                                                                                                                                                               
O47   O     0.875301933596777  0.721859183613051  0.527686297477411 0.0100 1.0000                                                                                                                                                                               
O48   O     0.721859143152551  0.527686307386169  0.875301943052214 0.0100 1.0000                                                                                                                                                                               
Al1   Al    0.069893537714640  0.069893526552795  0.069893576223596 0.0100 1.0000                                                                                                                                                                               
Al2   Al    0.332551227045479  0.332551097486712  0.332551276728504 0.0100 1.0000                                                                                                                                                                               
Al3   Al    0.430106438324840  0.430106561464990  0.430106499557856 0.0100 1.0000                                                                                                                                                                               
Al4   Al    0.167448694358585  0.167449010100413  0.167448804300267 0.0100 1.0000                                                                                                                                                                               
Al5   Al    0.073127274371691  0.071833368972703  0.575645854573837 0.0100 1.0000                                                                                                                                                                               
Al6   Al    0.324090677887714  0.323909139164392  0.824206097060881 0.0100 1.0000                                                                                                                                                                               
Al7   Al    0.426872661823544  0.428166699626214  0.924354192203429 0.0100 1.0000                                                                                                                                                                               
Al8   Al    0.175909244212521  0.176090921574270  0.675794003873323 0.0100 1.0000                                                                                                                                                                               
Al9   Al    0.071833388004718  0.575645821919323  0.073127270818457 0.0100 1.0000                                                                                                                                                                               
Al10  Al    0.323909193801180  0.824206000110346  0.324090723326174 0.0100 1.0000                                                                                                                                                                               
Al11  Al    0.428166532221674  0.924354275283282  0.426872759187348 0.0100 1.0000                                                                                                                                                                               
Al12  Al    0.176090760625606  0.675794080418105  0.175909298746695 0.0100 1.0000                                                                                                                                                                               
Al13  Al    0.073388109402744  0.575001286221870  0.575128334357146 0.0100 1.0000                                                                                                                                                                               
Al14  Al    0.324113481441055  0.823620081594298  0.823098933367400 0.0100 1.0000                                                                                                                                                                               
Al15  Al    0.426611794078094  0.924998785191236  0.924871762194640 0.0100 1.0000                                                                                                                                                                               
Al16  Al    0.175886407203622  0.676379983576271  0.676901149461203 0.0100 1.0000                                                                                                                                                                               
Al17  Al    0.575645786451490  0.073127260930757  0.071833375787855 0.0100 1.0000                                                                                                                                                                               
Al18  Al    0.824205952174106  0.324090731754722  0.323909238171385 0.0100 1.0000                                                                                                                                                                               
Al19  Al    0.924354194403868  0.426872787000284  0.428166608089204 0.0100 1.0000                                                                                                                                                                               
Al20  Al    0.675794008018515  0.175909330591467  0.176090798645021 0.0100 1.0000                                                                                                                                                                               
Al21  Al    0.575128304547028  0.073388094039751  0.575001399793367 0.0100 1.0000                                                                                                                                                                               
Al22  Al    0.823098750255165  0.324113509500677  0.823620203418209 0.0100 1.0000                                                                                                                                                                               
Al23  Al    0.924871668211206  0.426611929186946  0.924998661560950 0.0100 1.0000                                                                                                                                                                               
Al24  Al    0.676901238963802  0.175886496270504  0.676379828191405 0.0100 1.0000                                                                                                                                                                               
Al25  Al    0.575001399334349  0.575128194657294  0.073388112453059 0.0100 1.0000                                                                                                                                                                               
Al26  Al    0.823620086898132  0.823098772130745  0.324113619616374 0.0100 1.0000                                                                                                                                                                               
Al27  Al    0.924998576197271  0.924871878311316  0.426611904847991 0.0100 1.0000                                                                                                                                                                               
Al28  Al    0.676379910433679  0.676901281479605  0.175886329935564 0.0100 1.0000                                                                                                                                                                               
Al29  Al    0.574004348024319  0.574004178900405  0.574004236857321 0.0100 1.0000                                                                                                                                                                               
Al30  Al    0.823676679399412  0.823676608495912  0.823676734260652 0.0100 1.0000                                                                                                                                                                               
Al31  Al    0.925995607031485  0.925995826065116  0.925995733540380 0.0100 1.0000                                                                                                                                                                               
Al32  Al    0.676323299222133  0.676323397443651  0.676323252912147 0.0100 1.0000                                                                                                                                                                               
